Info: SIMULATION PARAMETERS:
Info: TIMESTEP               2
Info: NUMBER OF STEPS        0
Info: STEPS PER CYCLE        20
Info: PERIODIC CELL BASIS 1  111.998 0 0
Info: PERIODIC CELL BASIS 2  0 111.99 0
Info: PERIODIC CELL BASIS 3  0 0 111.996
Info: PERIODIC CELL CENTER   -8.059 17.747 -19.33
Info: WRAPPING ALL CLUSTERS AROUND PERIODIC BOUNDARIES ON OUTPUT.
Info: FIRST LDB TIMESTEP     100
Info: LAST LDB TIMESTEP     -1
Info: HOM BACKGROUND SCALING 1
Info: PME BACKGROUND SCALING 1
Info: MIN ATOMS PER PATCH    40
Info: INITIAL TEMPERATURE    300
Info: CENTER OF MASS MOVING INITIALLY? NO
Info: DIELECTRIC             1
Info: EXCLUDE                SCALED ONE-FOUR
Info: 1-4 ELECTROSTATICS SCALED BY 1
Info: MODIFIED 1-4 VDW PARAMETERS WILL BE USED
Info: NO DCD TRAJECTORY OUTPUT
Info: XST FILENAME           equil_extended.xst
Info: XST FREQUENCY          100
Info: NO VELOCITY DCD OUTPUT
Info: NO FORCE DCD OUTPUT
Info: OUTPUT FILENAME        equil_extended
Info: BINARY OUTPUT FILES WILL BE USED
Info: RESTART FILENAME       equil_extended
Info: RESTART FREQUENCY      100
Info: BINARY RESTART FILES WILL BE USED
Info: SWITCHING ACTIVE
Info: SWITCHING ON           10
Info: SWITCHING OFF          12
Info: PAIRLIST DISTANCE      16
Info: PAIRLIST SHRINK RATE   0.01
Info: PAIRLIST GROW RATE     0.01
Info: PAIRLIST TRIGGER       0.3
Info: PAIRLISTS PER CYCLE    2
Info: PAIRLISTS ENABLED
Info: MARGIN                 8
Info: HYDROGEN GROUP CUTOFF  2.8
Info: PATCH DIMENSION        26.8
Info: ENERGY OUTPUT STEPS    100
Info: CROSSTERM ENERGY INCLUDED IN DIHEDRAL
Info: TIMING OUTPUT STEPS    100
Info: PRESSURE OUTPUT STEPS  100
Info: LANGEVIN DYNAMICS ACTIVE
Info: LANGEVIN TEMPERATURE   300
Info: LANGEVIN USING BBK INTEGRATOR
Info: LANGEVIN DAMPING COEFFICIENT IS 5 INVERSE PS
Info: LANGEVIN DYNAMICS APPLIED TO HYDROGENS
Info: LANGEVIN PISTON PRESSURE CONTROL ACTIVE
Info:        TARGET PRESSURE IS 1.01325 BAR
Info:     OSCILLATION PERIOD IS 200 FS
Info:             DECAY TIME IS 100 FS
Info:     PISTON TEMPERATURE IS 300 K
Info:       PRESSURE CONTROL IS GROUP-BASED
Info:    INITIAL STRAIN RATE IS 0 0 0
Info:       CELL FLUCTUATION IS ISOTROPIC
Info: PARTICLE MESH EWALD (PME) ACTIVE
Info: PME TOLERANCE               1e-05
Info: PME EWALD COEFFICIENT       0.226635
Info: PME INTERPOLATION ORDER     4
Info: PME GRID DIMENSIONS         112 112 112
Info: PME MAXIMUM GRID SPACING    1
Info: FULL ELECTROSTATIC EVALUATION FREQUENCY      2
Info: USING VERLET I (r-RESPA) MTS SCHEME.
Info: C1 SPLITTING OF LONG RANGE ELECTROSTATICS
Info: PLACING ATOMS IN PATCHES BY HYDROGEN GROUPS
Info: RIGID BONDS TO HYDROGEN : ALL
Info:         ERROR TOLERANCE : 1e-06
Info:          MAX ITERATIONS : 400
Info: RIGID WATER USING SETTLE ALGORITHM
Info: RANDOM NUMBER SEED     1629911066
Info: USE HYDROGEN BONDS?    NO
Info: COORDINATE PDB         solvated.pdb
Info: STRUCTURE FILE         solvated.psf
Info: PARAMETER file: CHARMM format!
Info: PARAMETERS             /home/bard415/repos/parameters/par_all27_prot_lipid_more.prm
Info: USING ARITHMETIC MEAN TO COMBINE L-J SIGMA PARAMETERS
Info: SUMMARY OF PARAMETERS:
Info: 180 BONDS
Info: 447 ANGLES
Info: 568 DIHEDRAL
Info: 46 IMPROPER
Info: 6 CROSSTERM
Info: 114 VDW
Info: 0 VDW_PAIRS
Info: 0 NBTHOLE_PAIRS
Info: STRUCTURE SUMMARY:
Info: 135937 ATOMS
Info: 90732 BONDS
Info: 45776 ANGLES
Info: 843 DIHEDRALS
Info: 49 IMPROPERS
Info: 18 CROSSTERMS
Info: 0 EXCLUSIONS
Info: 135783 RIGID BONDS
Info: 272028 DEGREES OF FREEDOM
Info: 45365 HYDROGEN GROUPS
Info: 4 ATOMS IN LARGEST HYDROGEN GROUP
Info: 45365 MIGRATION GROUPS
Info: 4 ATOMS IN LARGEST MIGRATION GROUP
Info: TOTAL MASS = 816665 amu
Info: TOTAL CHARGE = 1 e
Info: MASS DENSITY = 0.965408 g/cm^3
Info: ATOM DENSITY = 0.0967711 atoms/A^3
Info: ADDED 137320 IMPLICIT EXCLUSIONS
Info: NONBONDED TABLE R-SQUARED SPACING: 0.0625
Info: NONBONDED TABLE SIZE: 769 POINTS
Info: REMOVING COM VELOCITY -0.0119537 0.00210503 0.0111669
TCL: Minimizing for 1000 steps
ETITLE: TS BOND ANGLE DIHED IMPRP ELECT VDW BOUNDARY MISC KINETIC TOTAL TEMP POTENTIAL TOTAL3 TEMPAVG PRESSURE GPRESSURE VOLUME PRESSAVG GPRESSAVG
ENERGY: 0 104.7880 992.0756 254.7512 244.7115 -459251.3436 99999999999.9999 0.0000 0.0000 0.0000 99999999999.9999 0.0000 99999999999.9999 99999999999.9999 0.0000 99999999999.9999 99999999999.9999 1404727.3036 99999999999.9999 99999999999.9999
ENERGY: 200 108.7208 126.0618 129.6164 3.8831 -522269.8464 33006.5603 0.0000 0.0000 0.0000 -488895.0040 0.0000 -488895.0040 -488895.0040 0.0000 14694.2656 14709.9714 1404727.3036 14694.2656 14709.9714
ENERGY: 400 228.9498 235.6776 128.5170 17.7970 -541547.7087 37663.7503 0.0000 0.0000 0.0000 -503273.0170 0.0000 -503273.0170 -503273.0170 0.0000 15523.8067 15526.3056 1404727.3036 15523.8067 15526.3056
ENERGY: 600 177.4116 337.0103 117.2390 12.5118 -558144.5582 43680.5908 0.0000 0.0000 0.0000 -513819.7947 0.0000 -513819.7947 -513819.7947 0.0000 16723.1701 16732.8775 1404727.3036 16723.1701 16732.8775
ENERGY: 800 185.0378 204.2412 111.4403 6.7676 -574291.8640 50635.1733 0.0000 0.0000 0.0000 -523149.2037 0.0000 -523149.2037 -523149.2037 0.0000 18181.9241 18196.7619 1404727.3036 18181.9241 18196.7619
ENERGY: 1000 58.3606 137.2055 109.4401 7.0970 -587281.1617 56577.6607 0.0000 0.0000 0.0000 -530391.3977 0.0000 -530391.3977 -530391.3977 0.0000 19436.1918 19448.2811 1404727.3036 19436.1918 19448.2811
TCL: Running for 5000 steps
ETITLE: TS BOND ANGLE DIHED IMPRP ELECT VDW BOUNDARY MISC KINETIC TOTAL TEMP POTENTIAL TOTAL3 TEMPAVG PRESSURE GPRESSURE VOLUME PRESSAVG GPRESSAVG
ENERGY: 1000 58.3606 137.2055 109.4401 7.0970 -587281.1617 56577.6607 0.0000 0.0000 80980.7684 -449410.6294 299.6116 -530391.3977 -449465.2367 299.6116 -4482.2077 -4451.3893 1404727.3036 -4482.2077 -4451.3893
ENERGY: 2000 62.9910 185.2914 118.7229 7.3363 -490371.5206 47235.8401 0.0000 0.0000 80951.6142 -361809.7246 299.5038 -442761.3389 -361722.1484 300.0430 -105.2437 -75.5176 1348601.7174 7.2029 7.3563
ENERGY: 3000 67.7020 165.2114 122.4724 13.7316 -489920.4806 47558.4641 0.0000 0.0000 81545.3621 -360447.5370 301.7005 -441992.8991 -360354.7297 301.4912 78.3489 107.6747 1342983.6328 -2.1339 -3.8056
ENERGY: 4000 69.8660 170.2985 116.7160 11.5506 -490155.5273 47144.4703 0.0000 0.0000 81064.2297 -361578.3962 299.9204 -442642.6259 -361500.4424 300.4546 -86.8873 -37.9820 1343750.4956 -10.0050 -11.4849
ENERGY: 5000 68.9870 189.4982 105.3831 5.9142 -490164.8284 47214.7210 0.0000 0.0000 81667.3437 -360912.9811 302.1518 -442580.3248 -360805.2578 300.8764 -31.1594 8.3021 1342868.3497 1.8975 -0.3873
ENERGY: 6000 63.4853 161.1879 110.9375 8.0370 -490466.9305 47576.5890 0.0000 0.0000 81295.0797 -361251.6141 300.7745 -442546.6938 -361140.1510 300.9969 88.3180 129.4830 1338420.8572 1.5681 2.5496
